Version 4
SHEET 1 912 680
WIRE -880 -896 -960 -896
WIRE -736 -896 -880 -896
WIRE -608 -896 -736 -896
WIRE -432 -896 -608 -896
WIRE 16 -896 -432 -896
WIRE -960 -880 -960 -896
WIRE -320 -832 -320 -848
WIRE -960 -784 -960 -800
WIRE -560 -752 -672 -752
WIRE -320 -752 -320 -768
WIRE -320 -752 -560 -752
WIRE 432 -752 -208 -752
WIRE -432 -720 -432 -896
WIRE -320 -720 -320 -752
WIRE -208 -720 -208 -752
WIRE 16 -720 16 -896
WIRE -560 -640 -560 -752
WIRE -512 -640 -560 -640
WIRE -32 -640 -128 -640
WIRE -608 -560 -608 -896
WIRE -512 -560 -608 -560
WIRE -80 -560 -128 -560
WIRE 16 -560 16 -624
WIRE 16 -560 -16 -560
WIRE 96 -560 16 -560
WIRE 224 -560 176 -560
WIRE 240 -560 224 -560
WIRE 336 -560 320 -560
WIRE 384 -560 336 -560
WIRE 432 -560 432 -752
WIRE 432 -560 384 -560
WIRE 592 -560 432 -560
WIRE 592 -544 592 -560
WIRE 432 -528 432 -560
WIRE -880 -496 -880 -896
WIRE -672 -480 -672 -752
WIRE -624 -480 -672 -480
WIRE -512 -480 -544 -480
WIRE 16 -480 16 -560
WIRE 16 -480 -128 -480
WIRE 432 -448 432 -464
WIRE 592 -448 592 -464
WIRE -880 -400 -880 -416
WIRE -512 -400 -880 -400
WIRE -32 -400 -128 -400
WIRE -880 -384 -880 -400
WIRE 16 -368 16 -384
WIRE -608 -320 -624 -320
WIRE -512 -320 -528 -320
WIRE -16 -320 -128 -320
WIRE 224 -320 224 -560
WIRE 224 -320 -16 -320
WIRE -880 -288 -880 -304
WIRE 384 -256 384 -560
WIRE -512 -240 -544 -240
WIRE -16 -240 -16 -256
WIRE -16 -240 -128 -240
WIRE 336 -240 336 -560
WIRE 336 -240 -16 -240
WIRE -512 -160 -544 -160
WIRE 384 -160 384 -176
WIRE 384 -160 -128 -160
WIRE 384 -144 384 -160
WIRE -512 -80 -544 -80
WIRE 384 -48 384 -64
WIRE -672 0 -672 -480
WIRE -512 0 -672 0
WIRE -96 0 -128 0
WIRE 16 0 -16 0
WIRE -624 80 -656 80
WIRE -512 80 -560 80
WIRE -96 80 -128 80
WIRE -624 160 -656 160
WIRE -512 160 -560 160
WIRE -432 288 -432 240
WIRE -736 336 -736 -896
WIRE -512 336 -736 336
WIRE -320 336 -320 240
WIRE -320 336 -416 336
WIRE -288 336 -320 336
WIRE -208 336 -208 240
WIRE -208 336 -224 336
WIRE -176 336 -208 336
FLAG 16 -368 0
FLAG 432 -448 0
FLAG 592 -448 0
FLAG 384 -48 0
FLAG 592 -560 Output_Voltage
FLAG -320 -848 0
FLAG -656 160 0
FLAG -656 80 0
FLAG -960 -784 0
FLAG -960 -896 Input_Voltage
FLAG -176 336 0
FLAG -624 -320 0
FLAG -544 -240 0
FLAG -880 -288 0
FLAG -96 80 0
FLAG 16 0 0
FLAG -544 -160 0
SYMBOL nmos -32 -720 R0
SYMATTR InstName Q1
SYMATTR Value BSC082N10LS
SYMBOL ind 80 -544 R270
WINDOW 0 32 56 VTop 2
WINDOW 3 5 56 VBottom 2
WINDOW 39 -23 56 VBottom 2
SYMATTR InstName L1
SYMATTR Value 33µ
SYMATTR SpiceLine Rser=15m
SYMBOL cap 416 -528 R0
WINDOW 39 36 75 Left 2
WINDOW 3 38 32 Left 2
WINDOW 123 44 51 Left 2
SYMATTR SpiceLine Rser=0.1
SYMATTR Value 150µ
SYMATTR Value2 x3
SYMATTR InstName C1
SYMBOL res 368 -272 R0
SYMATTR InstName R1
SYMATTR Value 511K
SYMBOL res 368 -160 R0
SYMATTR InstName R2
SYMATTR Value 36.5K
SYMBOL cap -80 -544 R270
WINDOW 0 32 32 VTop 2
WINDOW 3 0 32 VBottom 2
SYMATTR InstName C2
SYMATTR Value 0.1µ
SYMBOL cap -336 -832 R0
SYMATTR InstName C3
SYMATTR Value 0.1µ
SYMBOL cap -560 144 R90
WINDOW 0 0 32 VBottom 2
WINDOW 3 32 32 VTop 2
WINDOW 39 53 32 VTop 2
WINDOW 123 74 32 VTop 2
SYMATTR InstName C4
SYMATTR Value 4.7n
SYMATTR SpiceLine Cpar=100p
SYMATTR Value2 Rser=10K
SYMBOL cap -560 64 R90
WINDOW 0 0 32 VBottom 2
WINDOW 3 32 32 VTop 2
SYMATTR InstName C5
SYMATTR Value 0.01µ
SYMBOL voltage -960 -896 R0
WINDOW 3 20 93 Left 2
WINDOW 123 0 0 Left 0
WINDOW 39 0 0 Left 0
SYMATTR Value 48
SYMATTR InstName V1
SYMBOL nmos -32 -480 R0
SYMATTR InstName Q2
SYMATTR Value BSC082N10LS
SYMBOL res 576 -560 R0
SYMATTR InstName R_Simulated_Load
SYMATTR Value 10
SYMBOL res 224 -544 R270
WINDOW 0 32 56 VTop 2
WINDOW 3 0 56 VBottom 2
SYMATTR InstName R3
SYMATTR Value 6m
SYMBOL res -512 -336 R90
WINDOW 0 0 56 VBottom 2
WINDOW 3 32 56 VTop 2
SYMATTR InstName R4
SYMATTR Value 30.1K
SYMBOL cap -32 -320 R0
WINDOW 0 29 15 Left 2
SYMATTR InstName C6
SYMATTR Value 1n
SYMBOL res -528 -496 R90
WINDOW 0 0 56 VBottom 2
WINDOW 3 32 56 VTop 2
SYMATTR InstName R5
SYMATTR Value 511K
SYMBOL res -896 -512 R0
SYMATTR InstName R6
SYMATTR Value 1Meg
SYMBOL res -896 -400 R0
SYMATTR InstName R7
SYMATTR Value 18.7K
SYMBOL LTC3895 -320 -224 R0
SYMATTR InstName U1
SYMBOL res 0 -16 R90
WINDOW 0 0 56 VBottom 2
WINDOW 3 32 56 VTop 2
SYMATTR InstName R8
SYMATTR Value 75K
SYMBOL nmos -512 288 M90
WINDOW 0 4 48 VBottom 2
WINDOW 3 52 48 VTop 2
SYMATTR InstName Q3
SYMATTR Value Si4482DY
SYMBOL cap -224 320 R90
WINDOW 0 0 32 VBottom 2
WINDOW 3 32 32 VTop 2
SYMATTR InstName C7
SYMATTR Value 4.7µ
TEXT 752 -776 Left 2 !.tran 2m
